<?xml version="1.0" encoding="UTF-8"?>

<!-- generated on 2026-03-16T16:22:58.534621-07:00 by Eclipse SUMO netedit 1.25.0
<neteditConfiguration xmlns:xsi="http://www.w3.org/2001/XMLSchema-instance" xsi:noNamespaceSchemaLocation="http://sumo.dlr.de/xsd/neteditConfiguration.xsd">

    <input>
        <sumocfg-file value="/home/denos/PycharmProjects/AgentEvac/sumo/Repaired.sumocfg"/>
        <additional-files value="/home/denos/PycharmProjects/AgentEvac/sumo/../../Lytton/Buildings/polygons.xml"/>
        <route-files value="/home/denos/PycharmProjects/AgentEvac/sumo/Repaired.rou.xml"/>
        <sumo-net-file value="/home/denos/PycharmProjects/AgentEvac/sumo/Repaired.net.xml"/>
    </input>

    <output>
        <output-file value="/home/denos/PycharmProjects/AgentEvac/sumo/Repaired.net.xml"/>
    </output>

    <processing>
        <geometry.min-radius.fix.railways value="false"/>
        <geometry.avoid-overlap value="false"/>
        <geometry.max-grade.fix value="false"/>
        <offset.disable-normalization value="true"/>
        <lefthand value="0"/>
    </processing>

    <junctions>
        <no-turnarounds value="true"/>
        <junctions.corner-detail value="5"/>
        <junctions.limit-turn-speed value="5.50"/>
        <rectangular-lane-cut value="0"/>
    </junctions>

    <pedestrian>
        <walkingareas value="0"/>
    </pedestrian>

</neteditConfiguration>
-->

<net version="1.20" junctionCornerDetail="5" limitTurnSpeed="5.50" avoidOverlap="0" xmlns:xsi="http://www.w3.org/2001/XMLSchema-instance" xsi:noNamespaceSchemaLocation="http://sumo.dlr.de/xsd/net_file.xsd">

    <location netOffset="-585470.77,-5558508.58" convBoundary="0.00,0.00,25208.62,42349.99" origBoundary="-121.872930,49.815387,-121.364416,50.866942" projParameter="+proj=utm +zone=10 +ellps=WGS84 +datum=WGS84 +units=m +no_defs"/>

    <type id="highway.footway" priority="1" numLanes="1" speed="2.78" allow="pedestrian" oneway="1" width="2.00"/>
    <type id="highway.path" priority="1" numLanes="1" speed="5.56" allow="pedestrian bicycle" oneway="0" width="2.00"/>
    <type id="highway.primary" priority="12" numLanes="2" speed="27.78" disallow="tram rail_urban rail rail_electric rail_fast ship container cable_car subway aircraft wheelchair scooter drone" oneway="0"/>
    <type id="highway.primary_link" priority="7" numLanes="1" speed="22.22" disallow="tram rail_urban rail rail_electric rail_fast ship container cable_car subway aircraft wheelchair scooter drone" oneway="0"/>
    <type id="highway.residential" priority="3" numLanes="1" speed="13.89" disallow="tram rail_urban rail rail_electric rail_fast ship container cable_car subway aircraft wheelchair scooter drone" oneway="0"/>
    <type id="highway.secondary" priority="11" numLanes="1" speed="27.78" disallow="tram rail_urban rail rail_electric rail_fast ship container cable_car subway aircraft wheelchair scooter drone" oneway="0"/>
    <type id="highway.service" priority="1" numLanes="1" speed="5.56" allow="pedestrian delivery bicycle" oneway="0"/>
    <type id="highway.steps" priority="1" numLanes="1" speed="1.39" allow="pedestrian" oneway="1" width="2.00"/>
    <type id="highway.tertiary" priority="10" numLanes="1" speed="22.22" disallow="tram rail_urban rail rail_electric rail_fast ship container cable_car subway aircraft wheelchair scooter drone" oneway="0"/>
    <type id="highway.track" priority="1" numLanes="1" speed="5.56" allow="pedestrian motorcycle moped bicycle" oneway="0"/>
    <type id="highway.trunk" priority="13" numLanes="2" speed="27.78" disallow="pedestrian bicycle tram rail_urban rail rail_electric rail_fast ship container cable_car subway aircraft wheelchair scooter drone" oneway="0"/>
    <type id="highway.trunk_link" priority="8" numLanes="1" speed="22.22" disallow="pedestrian bicycle tram rail_urban rail rail_electric rail_fast ship container cable_car subway aircraft wheelchair scooter drone" oneway="0"/>
    <type id="highway.unclassified" priority="4" numLanes="1" speed="13.89" disallow="tram rail_urban rail rail_electric rail_fast ship container cable_car subway aircraft wheelchair scooter drone" oneway="0"/>
    <type id="railway.rail" priority="20" numLanes="1" speed="44.44" allow="rail" oneway="1"/>

    <edge id=":11040010788_0" function="internal">
        <lane id=":11040010788_0_0" index="0" disallow="tram rail_urban rail rail_electric rail_fast ship container cable_car subway aircraft wheelchair scooter drone" speed="13.89" length="10.11" shape="16213.39,6141.21 16213.11,6151.31"/>
    </edge>
    <edge id=":11040010788_1" function="internal">
        <lane id=":11040010788_1_0" index="0" allow="pedestrian delivery bicycle" speed="8.59" length="2.67" shape="16213.39,6141.21 16212.90,6143.38 16212.66,6143.75"/>
    </edge>
    <edge id=":11040010788_7" function="internal">
        <lane id=":11040010788_7_0" index="0" allow="pedestrian delivery bicycle" speed="8.59" length="8.26" shape="16212.66,6143.75 16211.57,6145.38 16209.38,6147.19 16206.34,6148.82"/>
    </edge>
    <edge id=":11040010788_2" function="internal">
        <lane id=":11040010788_2_0" index="0" allow="pedestrian delivery bicycle" speed="7.14" length="7.33" shape="16205.04,6145.90 16207.27,6144.75 16208.87,6143.58 16209.84,6142.37 16210.19,6141.13"/>
    </edge>
    <edge id=":11040010788_3" function="internal">
        <lane id=":11040010788_3_0" index="0" allow="pedestrian delivery bicycle" speed="6.67" length="12.79" shape="16205.04,6145.90 16208.67,6144.85 16211.22,6145.40 16212.71,6147.56 16213.11,6151.31"/>
    </edge>
    <edge id=":11040010788_4" function="internal">
        <lane id=":11040010788_4_0" index="0" allow="pedestrian delivery bicycle" speed="3.65" length="4.67" shape="16205.04,6145.90 16206.46,6146.14 16207.15,6146.71 16207.11,6147.61 16206.34,6148.82"/>
    </edge>
    <edge id=":11040010788_5" function="internal">
        <lane id=":11040010788_5_0" index="0" allow="pedestrian delivery bicycle" speed="4.71" length="5.66" shape="16209.91,6151.22 16209.73,6149.56 16209.08,6148.60 16207.94,6148.36 16206.34,6148.82"/>
    </edge>
    <edge id=":11040010788_6" function="internal">
        <lane id=":11040010788_6_0" index="0" disallow="tram rail_urban rail rail_electric rail_fast ship container cable_car subway aircraft wheelchair scooter drone" speed="13.89" length="10.10" shape="16209.91,6151.22 16210.19,6141.13"/>
    </edge>
    <edge id=":11040010789_0" function="internal">
        <lane id=":11040010789_0_0" index="0" allow="pedestrian delivery bicycle" speed="3.65" length="4.67" shape="16167.13,6166.25 16165.71,6166.01 16165.02,6165.44 16165.06,6164.55 16165.83,6163.33"/>
    </edge>
    <edge id=":11128774889_0" function="internal">
        <lane id=":11128774889_0_0" index="0" allow="pedestrian motorcycle moped bicycle" speed="9.72" length="14.85" shape="15803.94,7904.28 15802.20,7902.60 15799.31,7901.34 15795.30,7900.49 15790.15,7900.07"/>
    </edge>
    <edge id=":11128774889_1" function="internal">
        <lane id=":11128774889_1_0" index="0" disallow="tram rail_urban rail rail_electric rail_fast ship container cable_car subway aircraft wheelchair scooter drone" speed="13.89" length="17.08" shape="15803.94,7904.28 15801.56,7901.00 15798.64,7897.62 15795.57,7894.37 15792.75,7891.41"/>
    </edge>
    <edge id=":11128774889_2" function="internal">
        <lane id=":11128774889_2_0" index="0" disallow="tram rail_urban rail rail_electric rail_fast ship container cable_car subway aircraft wheelchair scooter drone" speed="3.67" length="1.47" shape="15803.94,7904.28 15803.72,7902.83"/>
    </edge>
    <edge id=":11128774889_9" function="internal">
        <lane id=":11128774889_9_0" index="0" disallow="tram rail_urban rail rail_electric rail_fast ship container cable_car subway aircraft wheelchair scooter drone" speed="3.67" length="3.29" shape="15803.72,7902.83 15804.04,7901.98 15804.92,7901.73 15806.34,7902.08"/>
    </edge>
    <edge id=":11128774889_3" function="internal">
        <lane id=":11128774889_3_0" index="0" disallow="tram rail_urban rail rail_electric rail_fast ship container cable_car subway aircraft wheelchair scooter drone" speed="13.89" length="17.12" shape="15795.08,7889.22 15797.91,7892.17 15801.00,7895.43 15803.95,7898.80 15806.34,7902.08"/>
    </edge>
    <edge id=":11128774889_4" function="internal">
        <lane id=":11128774889_4_0" index="0" allow="pedestrian motorcycle moped bicycle" speed="7.43" length="5.98" shape="15795.08,7889.22 15798.66,7894.00"/>
    </edge>
    <edge id=":11128774889_5" function="internal">
        <lane id=":11128774889_5_0" index="0" disallow="tram rail_urban rail rail_electric rail_fast ship container cable_car subway aircraft wheelchair scooter drone" speed="3.65" length="1.44" shape="15795.08,7889.22 15795.32,7890.64"/>
    </edge>
    <edge id=":11128774889_10" function="internal">
        <lane id=":11128774889_10_0" index="0" allow="pedestrian motorcycle moped bicycle" speed="7.43" length="13.41" shape="15798.66,7894.00 15798.80,7894.19 15799.22,7897.65 15796.33,7899.61 15790.15,7900.07"/>
    </edge>
    <edge id=":11128774889_11" function="internal">
        <lane id=":11128774889_11_0" index="0" disallow="tram rail_urban rail rail_electric rail_fast ship container cable_car subway aircraft wheelchair scooter drone" speed="3.65" length="3.23" shape="15795.32,7890.64 15795.01,7891.48 15794.15,7891.74 15792.75,7891.41"/>
    </edge>
    <edge id=":11128774889_6" function="internal">
        <lane id=":11128774889_6_0" index="0" allow="pedestrian motorcycle moped bicycle" speed="5.47" length="9.76" shape="15790.26,7896.88 15793.38,7896.64 15794.83,7895.66 15794.62,7893.91 15792.75,7891.41"/>
    </edge>
    <edge id=":11128774889_7" function="internal">
        <lane id=":11128774889_7_0" index="0" allow="pedestrian motorcycle moped bicycle" speed="9.72" length="17.42" shape="15790.26,7896.88 15796.19,7897.38 15800.85,7898.42 15804.23,7899.99 15806.34,7902.08"/>
    </edge>
    <edge id=":11128774889_8" function="internal">
        <lane id=":11128774889_8_0" index="0" allow="pedestrian motorcycle moped bicycle" speed="3.65" length="4.67" shape="15790.26,7896.88 15791.43,7897.72 15791.80,7898.53 15791.37,7899.32 15790.15,7900.07"/>
    </edge>
    <edge id=":11128774894_0" function="internal">
        <lane id=":11128774894_0_0" index="0" allow="pedestrian motorcycle moped bicycle" speed="16.67" length="17.14" shape="15723.22,7926.62 15719.51,7928.45 15715.26,7930.17 15711.25,7932.15 15708.28,7934.76"/>
    </edge>
    <edge id=":11128774894_1" function="internal">
        <lane id=":11128774894_1_0" index="0" allow="pedestrian motorcycle moped bicycle" speed="6.18" length="15.31" shape="15723.22,7926.62 15719.47,7927.32 15716.60,7925.27 15715.38,7921.66 15716.60,7917.69"/>
    </edge>
    <edge id=":11128774894_2" function="internal">
        <lane id=":11128774894_2_0" index="0" allow="pedestrian motorcycle moped bicycle" speed="3.69" length="4.82" shape="15723.22,7926.62 15721.78,7926.22 15721.14,7925.56 15721.27,7924.65 15722.20,7923.48"/>
    </edge>
    <edge id=":11128774894_3" function="internal">
        <lane id=":11128774894_3_0" index="0" allow="pedestrian motorcycle moped bicycle" speed="5.90" length="13.77" shape="15719.20,7919.55 15716.52,7923.79 15716.13,7925.86 15718.02,7925.76 15722.20,7923.48"/>
    </edge>
    <edge id=":11128774894_4" function="internal">
        <lane id=":11128774894_4_0" index="0" disallow="tram rail_urban rail rail_electric rail_fast ship container cable_car subway aircraft wheelchair scooter drone" speed="27.78" length="18.72" shape="15719.20,7919.55 15708.28,7934.76"/>
    </edge>
    <edge id=":11128774894_5" function="internal">
        <lane id=":11128774894_5_0" index="0" disallow="tram rail_urban rail rail_electric rail_fast ship container cable_car subway aircraft wheelchair scooter drone" speed="3.65" length="1.44" shape="15719.20,7919.55 15717.85,7920.06"/>
    </edge>
    <edge id=":11128774894_9" function="internal">
        <lane id=":11128774894_9_0" index="0" disallow="tram rail_urban rail rail_electric rail_fast ship container cable_car subway aircraft wheelchair scooter drone" speed="3.65" length="3.23" shape="15717.85,7920.06 15716.96,7919.92 15716.55,7919.13 15716.60,7917.69"/>
    </edge>
    <edge id=":11128774894_6" function="internal">
        <lane id=":11128774894_6_0" index="0" disallow="tram rail_urban rail rail_electric rail_fast ship container cable_car subway aircraft wheelchair scooter drone" speed="27.78" length="18.72" shape="15705.68,7932.90 15716.60,7917.69"/>
    </edge>
    <edge id=":11128774894_7" function="internal">
        <lane id=":11128774894_7_0" index="0" allow="pedestrian motorcycle moped bicycle" speed="16.67" length="3.17" shape="15705.68,7932.90 15708.07,7930.81"/>
    </edge>
    <edge id=":11128774894_8" function="internal">
        <lane id=":11128774894_8_0" index="0" disallow="tram rail_urban rail rail_electric rail_fast ship container cable_car subway aircraft wheelchair scooter drone" speed="3.65" length="1.44" shape="15705.68,7932.90 15707.03,7932.39"/>
    </edge>
    <edge id=":11128774894_10" function="internal">
        <lane id=":11128774894_10_0" index="0" allow="pedestrian motorcycle moped bicycle" speed="16.67" length="15.96" shape="15708.07,7930.81 15708.90,7930.09 15713.45,7927.67 15718.24,7925.51 15722.20,7923.48"/>
    </edge>
    <edge id=":11128774894_11" function="internal">
        <lane id=":11128774894_11_0" index="0" disallow="tram rail_urban rail rail_electric rail_fast ship container cable_car subway aircraft wheelchair scooter drone" speed="3.65" length="3.23" shape="15707.03,7932.39 15707.91,7932.53 15708.33,7933.32 15708.28,7934.76"/>
    </edge>
    <edge id=":12162973694_0" function="internal">
        <lane id=":12162973694_0_0" index="0" disallow="tram rail_urban rail rail_electric rail_fast ship container cable_car subway aircraft wheelchair scooter drone" speed="27.78" length="9.40" shape="15705.81,7655.67 15702.88,7646.74"/>
    </edge>
    <edge id=":12162973694_1" function="internal">
        <lane id=":12162973694_1_0" index="0" allow="pedestrian delivery bicycle" speed="6.87" length="3.26" shape="15705.81,7655.67 15705.33,7652.94 15705.44,7652.47"/>
    </edge>
    <edge id=":12162973694_7" function="internal">
        <lane id=":12162973694_7_0" index="0" allow="pedestrian delivery bicycle" speed="6.87" length="6.90" shape="15705.44,7652.47 15705.84,7650.70 15707.34,7648.96 15709.84,7647.71"/>
    </edge>
    <edge id=":12162973694_2" function="internal">
        <lane id=":12162973694_2_0" index="0" allow="pedestrian delivery bicycle" speed="5.05" length="5.02" shape="15710.85,7650.75 15709.61,7651.36 15708.87,7652.22 15708.62,7653.33 15708.85,7654.67"/>
    </edge>
    <edge id=":12162973694_3" function="internal">
        <lane id=":12162973694_3_0" index="0" allow="pedestrian delivery bicycle" speed="6.86" length="10.18" shape="15710.85,7650.75 15708.10,7651.25 15705.86,7650.75 15704.12,7649.24 15702.88,7646.74"/>
    </edge>
    <edge id=":12162973694_4" function="internal">
        <lane id=":12162973694_4_0" index="0" allow="pedestrian delivery bicycle" speed="3.65" length="4.67" shape="15710.85,7650.75 15709.46,7650.37 15708.82,7649.74 15708.95,7648.85 15709.84,7647.71"/>
    </edge>
    <edge id=":12162973694_5" function="internal">
        <lane id=":12162973694_5_0" index="0" allow="pedestrian delivery bicycle" speed="5.04" length="5.00" shape="15705.92,7645.74 15706.53,7646.97 15707.38,7647.71 15708.49,7647.96 15709.84,7647.71"/>
    </edge>
    <edge id=":12162973694_6" function="internal">
        <lane id=":12162973694_6_0" index="0" disallow="tram rail_urban rail rail_electric rail_fast ship container cable_car subway aircraft wheelchair scooter drone" speed="27.78" length="9.40" shape="15705.92,7645.74 15708.85,7654.67"/>
    </edge>
    <edge id=":12181430059_0" function="internal">
        <lane id=":12181430059_0_0" index="0" allow="pedestrian bicycle" speed="2.89" length="2.92" width="2.00" shape="15687.76,8559.39 15686.91,8559.69 15686.36,8559.59 15686.11,8559.09 15686.16,8558.19"/>
    </edge>
    <edge id=":12462520377_0" function="internal">
        <lane id=":12462520377_0_0" index="0" allow="rail" speed="28.92" length="60.62" shape="17185.87,9287.22 17125.64,9280.39"/>
    </edge>
    <edge id=":12462520377_1" function="internal">
        <lane id=":12462520377_1_0" index="0" allow="rail" speed="13.41" length="60.62" shape="17185.87,9287.22 17126.10,9277.14"/>
    </edge>
    <edge id=":12462532792_0" function="internal">
        <lane id=":12462532792_0_0" index="0" allow="rail" speed="30.04" length="3.01" shape="16053.60,7561.62 16053.70,7562.50 16053.78,7563.11 16053.90,7563.71 16054.12,7564.57"/>
    </edge>
    <edge id=":12462532792_1" function="internal">
        <lane id=":12462532792_1_0" index="0" allow="rail" speed="15.65" length="2.99" shape="16053.35,7561.68 16054.12,7564.57"/>
    </edge>
    <edge id=":12462532815_0" function="internal">
        <lane id=":12462532815_0_0" index="0" allow="rail" speed="30.04" length="0.10" shape="16088.04,5158.70 16087.95,5158.71"/>
    </edge>
    <edge id=":12462532815_1" function="internal">
        <lane id=":12462532815_1_0" index="0" allow="rail" speed="15.65" length="2.71" shape="16087.84,5156.01 16087.95,5158.71"/>
    </edge>
    <edge id=":12462532835_0" function="internal">
        <lane id=":12462532835_0_0" index="0" allow="rail" speed="44.44" length="51.31" shape="15801.35,6701.31 15785.10,6652.64"/>
    </edge>
    <edge id=":12462532835_1" function="internal">
        <lane id=":12462532835_1_0" index="0" allow="rail" speed="44.44" length="51.30" shape="15804.44,6700.16 15800.82,6691.46 15794.60,6676.46 15788.47,6661.44 15785.10,6652.64"/>
    </edge>
    <edge id=":12462548513_0" function="internal">
        <lane id=":12462548513_0_0" index="0" allow="rail" speed="28.92" length="38.38" shape="15799.40,7655.59 15795.55,7649.26 15789.42,7639.19 15783.22,7629.17 15779.16,7622.98"/>
    </edge>
    <edge id=":12462548513_1" function="internal">
        <lane id=":12462548513_1_0" index="0" allow="rail" speed="13.41" length="38.38" shape="15802.16,7653.71 15779.16,7622.98"/>
    </edge>
    <edge id=":12462548527_0" function="internal">
        <lane id=":12462548527_0_0" index="0" allow="rail" speed="28.92" length="96.19" shape="15678.20,7147.28 15630.19,7063.92"/>
    </edge>
    <edge id=":12462548527_1" function="internal">
        <lane id=":12462548527_1_0" index="0" allow="rail" speed="13.41" length="96.19" shape="15678.20,7147.28 15633.03,7062.35"/>
    </edge>
    <edge id=":12462548541_0" function="internal">
        <lane id=":12462548541_0_0" index="0" allow="rail" speed="28.92" length="50.48" shape="15551.68,6489.08 15570.26,6442.14"/>
    </edge>
    <edge id=":12462548541_1" function="internal">
        <lane id=":12462548541_1_0" index="0" allow="rail" speed="13.41" length="50.52" shape="15554.72,6490.22 15570.26,6442.14"/>
    </edge>
    <edge id=":12464203738_0" function="internal">
        <lane id=":12464203738_0_0" index="0" allow="pedestrian motorcycle moped bicycle" speed="3.65" length="4.67" shape="16476.18,5649.55 16476.93,5648.32 16477.71,5647.88 16478.53,5648.25 16479.38,5649.41"/>
    </edge>
    <edge id=":12464203874_0" function="internal">
        <lane id=":12464203874_0_0" index="0" allow="pedestrian motorcycle moped bicycle" speed="3.65" length="4.67" shape="16827.11,6332.74 16828.48,6333.21 16829.07,6333.88 16828.88,6334.76 16827.93,6335.84"/>
    </edge>
    <edge id=":12841120931_0" function="internal">
        <lane id=":12841120931_0_0" index="0" allow="pedestrian bicycle" speed="2.97" length="3.19" width="2.00" shape="15367.93,5911.25 15368.53,5910.47 15369.09,5910.23 15369.62,5910.54 15370.11,5911.39"/>
    </edge>
    <edge id=":12841120932_0" function="internal">
        <lane id=":12841120932_0_0" index="0" allow="pedestrian bicycle" speed="2.89" length="2.92" width="2.00" shape="15322.18,6016.72 15321.46,6017.26 15320.91,6017.33 15320.52,6016.93 15320.30,6016.06"/>
    </edge>
    <edge id=":12850045920_0" function="internal">
        <lane id=":12850045920_0_0" index="0" allow="pedestrian motorcycle moped bicycle" speed="3.65" length="4.67" shape="15593.19,7491.25 15593.43,7489.83 15594.00,7489.14 15594.90,7489.18 15596.11,7489.95"/>
    </edge>
    <edge id=":12850045933_0" function="internal">
        <lane id=":12850045933_0_0" index="0" allow="pedestrian bicycle" speed="2.89" length="2.92" width="2.00" shape="15613.45,7131.77 15613.00,7132.55 15612.52,7132.84 15612.01,7132.63 15611.45,7131.91"/>
    </edge>
    <edge id=":12850045940_0" function="internal">
        <lane id=":12850045940_0_0" index="0" allow="pedestrian motorcycle moped bicycle" speed="3.65" length="4.67" shape="15612.40,8043.65 15612.94,8044.99 15612.82,8045.87 15612.04,8046.31 15610.60,8046.29"/>
    </edge>
    <edge id=":12850045966_0" function="internal">
        <lane id=":12850045966_0_0" index="0" allow="pedestrian motorcycle moped bicycle" speed="3.65" length="4.67" shape="15472.08,8025.78 15471.03,8024.79 15470.77,8023.93 15471.30,8023.21 15472.62,8022.62"/>
    </edge>
    <edge id=":12850045967_0" function="internal">
        <lane id=":12850045967_0_0" index="0" allow="pedestrian bicycle" speed="4.45" length="4.73" width="2.00" shape="15771.84,7906.07 15771.64,7904.64 15771.10,7903.72 15770.21,7903.30 15768.98,7903.38"/>
    </edge>
    <edge id=":12850045967_1" function="internal">
        <lane id=":12850045967_1_0" index="0" allow="pedestrian bicycle" speed="5.56" length="8.77" width="2.00" shape="15771.84,7906.07 15772.00,7903.11 15772.61,7900.89 15773.65,7899.39 15775.14,7898.61"/>
    </edge>
    <edge id=":12850045967_2" function="internal">
        <lane id=":12850045967_2_0" index="0" allow="pedestrian bicycle" speed="2.89" length="2.92" width="2.00" shape="15771.84,7906.07 15772.33,7905.31 15772.82,7905.05 15773.33,7905.29 15773.84,7906.04"/>
    </edge>
    <edge id=":12850045967_3" function="internal">
        <lane id=":12850045967_3_0" index="0" allow="pedestrian bicycle" speed="5.51" length="5.15" width="2.00" shape="15775.88,7901.72 15774.96,7902.18 15774.32,7903.06 15773.94,7904.34 15773.84,7906.04"/>
    </edge>
    <edge id=":12850045967_4" function="internal">
        <lane id=":12850045967_4_0" index="0" allow="pedestrian motorcycle moped bicycle" speed="5.56" length="7.10" shape="15775.88,7901.72 15768.98,7903.38"/>
    </edge>
    <edge id=":12850045967_5" function="internal">
        <lane id=":12850045967_5_0" index="0" allow="pedestrian motorcycle moped bicycle" speed="3.65" length="4.67" shape="15775.88,7901.72 15774.53,7901.23 15773.95,7900.54 15774.16,7899.67 15775.14,7898.61"/>
    </edge>
    <edge id=":12850045967_6" function="internal">
        <lane id=":12850045967_6_0" index="0" allow="pedestrian motorcycle moped bicycle" speed="5.56" length="7.10" shape="15768.23,7900.27 15775.14,7898.61"/>
    </edge>
    <edge id=":12850045967_7" function="internal">
        <lane id=":12850045967_7_0" index="0" allow="pedestrian bicycle" speed="5.56" length="9.65" width="2.00" shape="15768.23,7900.27 15770.64,7900.14 15772.38,7901.05 15773.44,7903.02 15773.84,7906.04"/>
    </edge>
    <edge id=":12850045967_8" function="internal">
        <lane id=":12850045967_8_0" index="0" allow="pedestrian motorcycle moped bicycle" speed="3.65" length="4.67" shape="15768.23,7900.27 15769.59,7900.77 15770.16,7901.45 15769.96,7902.32 15768.98,7903.38"/>
    </edge>
    <edge id=":12850080385_0" function="internal">
        <lane id=":12850080385_0_0" index="0" disallow="pedestrian bicycle tram rail_urban rail rail_electric rail_fast ship container cable_car subway aircraft wheelchair scooter drone" speed="27.78" length="14.42" shape="16169.23,7599.87 16164.47,7586.26"/>
    </edge>
    <edge id=":12850080385_1" function="internal">
        <lane id=":12850080385_1_0" index="0" allow="motorcycle moped" speed="7.87" length="4.13" shape="16169.23,7599.87 16168.46,7595.93 16168.49,7595.81"/>
    </edge>
    <edge id=":12850080385_2" function="internal">
        <lane id=":12850080385_2_0" index="0" disallow="pedestrian bicycle tram rail_urban rail rail_electric rail_fast ship container cable_car subway aircraft wheelchair scooter drone" speed="3.65" length="1.44" shape="16169.23,7599.87 16169.59,7598.47"/>
    </edge>
    <edge id=":12850080385_9" function="internal">
        <lane id=":12850080385_9_0" index="0" allow="motorcycle moped" speed="7.87" length="10.36" shape="16168.49,7595.81 16169.18,7592.78 16171.38,7590.41 16175.08,7588.84"/>
    </edge>
    <edge id=":12850080385_10" function="internal">
        <lane id=":12850080385_10_0" index="0" disallow="pedestrian bicycle tram rail_urban rail rail_electric rail_fast ship container cable_car subway aircraft wheelchair scooter drone" speed="3.65" length="3.23" shape="16169.59,7598.47 16170.21,7597.83 16171.10,7597.94 16172.25,7598.81"/>
    </edge>
    <edge id=":12850080385_3" function="internal">
        <lane id=":12850080385_3_0" index="0" allow="motorcycle moped" speed="6.35" length="9.04" shape="16175.90,7591.93 16173.59,7592.92 16172.22,7594.39 16171.77,7596.35 16172.25,7598.81"/>
    </edge>
    <edge id=":12850080385_4" function="internal">
        <lane id=":12850080385_4_0" index="0" allow="motorcycle moped" speed="8.26" length="14.31" shape="16175.90,7591.93 16171.94,7592.44 16168.72,7591.66 16166.23,7589.60 16164.47,7586.26"/>
    </edge>
    <edge id=":12850080385_5" function="internal">
        <lane id=":12850080385_5_0" index="0" allow="pedestrian motorcycle moped bicycle" speed="3.65" length="4.67" shape="16175.90,7591.93 16174.53,7591.47 16173.94,7590.80 16174.12,7589.92 16175.08,7588.84"/>
    </edge>
    <edge id=":12850080385_6" function="internal">
        <lane id=":12850080385_6_0" index="0" allow="motorcycle moped" speed="6.82" length="9.44" shape="16167.49,7585.20 16168.64,7587.37 16170.29,7588.70 16172.44,7589.19 16175.08,7588.84"/>
    </edge>
    <edge id=":12850080385_7" function="internal">
        <lane id=":12850080385_7_0" index="0" disallow="pedestrian bicycle tram rail_urban rail rail_electric rail_fast ship container cable_car subway aircraft wheelchair scooter drone" speed="27.78" length="14.42" shape="16167.49,7585.20 16172.25,7598.81"/>
    </edge>
    <edge id=":12850080385_8" function="internal">
        <lane id=":12850080385_8_0" index="0" disallow="pedestrian bicycle tram rail_urban rail rail_electric rail_fast ship container cable_car subway aircraft wheelchair scooter drone" speed="3.65" length="1.44" shape="16167.49,7585.20 16167.13,7586.60"/>
    </edge>
    <edge id=":12850080385_11" function="internal">
        <lane id=":12850080385_11_0" index="0" disallow="pedestrian bicycle tram rail_urban rail rail_electric rail_fast ship container cable_car subway aircraft wheelchair scooter drone" speed="3.65" length="3.23" shape="16167.13,7586.60 16166.51,7587.24 16165.62,7587.13 16164.47,7586.26"/>
    </edge>
    <edge id=":12850080386_0" function="internal">
        <lane id=":12850080386_0_0" index="0" allow="pedestrian motorcycle moped bicycle" speed="3.65" length="4.67" shape="17145.05,7415.52 17145.98,7416.62 17146.15,7417.50 17145.55,7418.16 17144.17,7418.60"/>
    </edge>
    <edge id=":12850080387_0" function="internal">
        <lane id=":12850080387_0_0" index="0" allow="pedestrian motorcycle moped bicycle" speed="3.65" length="4.67" shape="16428.69,7820.29 16427.75,7821.39 16426.91,7821.69 16426.16,7821.20 16425.51,7819.91"/>
    </edge>
    <edge id=":12850080539_0" function="internal">
        <lane id=":12850080539_0_0" index="0" allow="pedestrian motorcycle moped bicycle" speed="5.56" length="13.59" shape="16399.15,7733.46 16398.62,7729.97 16397.98,7726.76 16397.18,7723.60 16396.18,7720.21"/>
    </edge>
    <edge id=":12850080539_1" function="internal">
        <lane id=":12850080539_1_0" index="0" allow="pedestrian motorcycle moped bicycle" speed="5.56" length="14.02" shape="16399.15,7733.46 16399.21,7729.83 16400.41,7726.86 16402.76,7724.53 16406.25,7722.85"/>
    </edge>
    <edge id=":12850080539_2" function="internal">
        <lane id=":12850080539_2_0" index="0" allow="pedestrian motorcycle moped bicycle" speed="3.65" length="4.67" shape="16399.15,7733.46 16399.79,7732.16 16400.53,7731.66 16401.38,7731.95 16402.33,7733.04"/>
    </edge>
    <edge id=":12850080539_3" function="internal">
        <lane id=":12850080539_3_0" index="0" allow="pedestrian motorcycle moped bicycle" speed="5.56" length="9.54" shape="16407.26,7725.89 16404.84,7727.04 16403.21,7728.61 16402.37,7730.61 16402.33,7733.04"/>
    </edge>
    <edge id=":12850080539_4" function="internal">
        <lane id=":12850080539_4_0" index="0" allow="pedestrian motorcycle moped bicycle" speed="5.56" length="14.26" shape="16407.26,7725.89 16403.41,7726.58 16400.27,7725.87 16397.86,7723.75 16396.18,7720.21"/>
    </edge>
    <edge id=":12850080539_5" function="internal">
        <lane id=":12850080539_5_0" index="0" allow="pedestrian motorcycle moped bicycle" speed="3.65" length="4.67" shape="16407.26,7725.89 16405.87,7725.51 16405.24,7724.87 16405.37,7723.99 16406.25,7722.85"/>
    </edge>
    <edge id=":12850080539_6" function="internal">
        <lane id=":12850080539_6_0" index="0" allow="pedestrian motorcycle moped bicycle" speed="5.56" length="9.03" shape="16399.23,7719.26 16400.30,7721.49 16401.83,7722.84 16403.81,7723.29 16406.25,7722.85"/>
    </edge>
    <edge id=":12850080539_7" function="internal">
        <lane id=":12850080539_7_0" index="0" allow="pedestrian motorcycle moped bicycle" speed="5.56" length="14.14" shape="16399.23,7719.26 16400.25,7722.72 16401.09,7726.08 16401.78,7729.46 16402.33,7733.04"/>
    </edge>
    <edge id=":12850080539_8" function="internal">