<?xml version="1.0" encoding="UTF-8"?>

<!-- generated on 2026-03-15T00:58:52.954385-07:00 by Eclipse SUMO sumo 1.25.0
-->

<sumoConfiguration xmlns:xsi="http://www.w3.org/2001/XMLSchema-instance" xsi:noNamespaceSchemaLocation="http://sumo.dlr.de/xsd/sumoConfiguration.xsd">

    <input>
        <net-file value="../../Lytton/2022_Roadnetwork_Lytton/lytton.net.xml"/>
        <route-files value="Repaired.rou.xml"/>
        <additional-files value="../../Lytton/Buildings/polygons.xml"/>
    </input>

</sumoConfiguration>
